tests/fuzzer/corpus_json/24_columnar_21_random_026.json
{
  "version": "1.0",
  "type": "input",
  "is_batch": false,
  "attributes": {
    "node": [
      "id",
      "u_rated"
    ],
    "source": [
      "id",
      "node",
      "status",
      "u_ref",
      "u_ref_angle",
      "sk",
      "rx_ratio",
      "z01_ratio"
    ],
    "line": [
      "id",
      "from_node",
      "to_node",
      "from_status",
      "to_status",
      "r1",
      "x1",
      "c1",
      "tan1",
      "r0",
      "x0",
      "c0",
      "tan0",
      "i_n"
    ],
    "sym_load": [
      "id",
      "node",
      "status",
      "type",
      "p_specified",
      "q_specified"
    ],
    "shunt": [
      "id",
      "node",
      "status",
      "g1",
      "b1",
      "g0",
      "b0"
    ]
  },
  "data": {
    "node": [
      [
        0,
        400.0
      ],
      [
        1,
        400.0
      ],
      [
        2,
        400.0
      ],
      [
        3,
        400.0
      ],
      [
        4,
        400.0
      ],
      [
        5,
        400.0
      ],
      [
        6,
        400.0
      ],
      [
        7,
        400.0
      ],
      [
        8,
        400.0
      ],
      [
        9,
        400.0
      ],
      [
        10,
        400.0
      ],
      [
        11,
        400.0
      ],
      [
        12,
        400.0
      ]
    ],
    "source": [
      [
        13,
        0,
        1,
        0.9864915722619849,
        0.0,
        659521367.3192123,
        0.2720071899025041,
        1.0
      ],
      [
        14,
        12,
        1,
        1.0,
        0.0,
        951175310.7893071,
        0.1,
        1.0
      ]
    ],
    "line": [
      [
        15,
        0,
        1,
        1,
        1,
        2.386269310181449,
        3.6508561552835603,
        6.234095134044994e-07,
        0.0,
        0.3,
        0.3,
        1e-09,
        0.0,
        179.90130066193092
      ],
      [
        16,
        1,
        2,
        1,
        1,
        2.147990463440591,
        1.2122488761975436,
        7.477376044477572e-07,
        0.0,
        0.3,
        0.3,
        1e-09,
        0.0,
        720.0488840468378
      ],
      [
        17,
        2,
        3,
        1,
        1,
        1.009718656029717,
        3.4624937911240385,
        8.559337558507294e-07,
        0.0,
        0.3,
        0.3,
        1e-09,
        0.0,
        669.9934618809489
      ],
      [
        18,
        3,
        4,
        1,
        1,
        4.271105498905543,
        0.7210163447786627,
        2.1649359611762963e-07,
        0.0,
        0.3,
        0.3,
        1e-09,
        0.0,
        488.348155919242
      ],
      [
        19,
        4,
        5,
        1,
        1,
        3.8263588755083755,
        1.9434007392927533,
        2.436455028331983e-07,
        0.0,
        0.3,
        0.3,
        1e-09,
        0.0,
        588.3080443030801
      ],
      [
        20,
        5,
        6,
        1,
        1,
        0.15191245706774603,
        3.6850814258105995,
        8.44671529110583e-07,
        0.0,
        0.3,
        0.3,
        1e-09,
        0.0,
        541.3259595863019
      ],
      [
        21,
        6,
        7,
        1,
        1,
        2.5474950314994063,
        3.2219366359595143,
        4.643311023723887e-07,
        0.0,
        0.3,
        0.3,
        1e-09,
        0.0,
        660.835420530379
      ],
      [
        22,
        7,
        8,
        1,
        1,
        1.5680773115137825,
        1.595927061555527,
        6.660896943766852e-07,
        0.0,
        0.3,
        0.3,
        1e-09,
        0.0,
        437.6913691227798
      ],
      [
        23,
        8,
        9,
        1,
        1,
        3.4653842151437546,
        0.28101745549177826,
        9.50981305916186e-07,
        0.0,
        0.3,
        0.3,
        1e-09,
        0.0,
        205.40240712728126
      ],
      [
        24,
        9,
        10,
        1,
        1,
        3.121153801095049,
        4.334556439074238,
        6.071251669400935e-07,
        0.0,
        0.3,
        0.3,
        1e-09,
        0.0,
        164.42992052679995
      ],
      [
        25,
        10,
        11,
        1,
        1,
        0.49713079165260743,
        0.6291410157433758,
        5.486545764959769e-07,
        0.0,
        0.3,
        0.3,
        1e-09,
        0.0,
        781.3682974450386
      ],
      [
        26,
        11,
        12,
        1,
        1,
        0.235053502274718,
        1.0902177307742855,
        5.96168374874849e-07,
        0.0,
        0.3,
        0.3,
        1e-09,
        0.0,
        991.3059164623364
      ]
    ],
    "sym_load": [
      [
        27,
        3,
        1,
        1,
        56748.03710732685,
        8844.340953301657
      ],
      [
        28,
        5,
        1,
        0,
        -29542.317843045326,
        3509.267157267812
      ],
      [
        29,
        9,
        1,
        2,
        55080.17086860846,
        8257.178616813075
      ],
      [
        30,
        11,
        1,
        1,
        20609.613344179626,
        4219.99365572567
      ]
    ],
    "shunt": [
      [
        31,
        0,
        1,
        8.153762837802448e-07,
        -7.769230161245698e-05,
        0.0001,
        0.0001
      ]
    ]
  }
}
